/*--------------------------------*- C++ -*----------------------------------*\
  =========                 |
  \\      /  F ield         | OpenFOAM: The Open Source CFD Toolbox
   \\    /   O peration     | Website:  https://openfoam.org
    \\  /    A nd           | Version:  7
     \\/     M anipulation  |
\*---------------------------------------------------------------------------*/
FoamFile
{
    version     2.0;
    format      ascii;
    class       dictionary;
    location    "system";
    object      controlDict;
}
// * * * * * * * * * * * * * * * * * * * * * * * * * * * * * * * * * * * * * //

application     dfLMFoam;

startFrom       startTime;

startTime       0;

stopAt          endTime;

endTime         0.001;

deltaT          1e-06;

maxDeltaT       1e-03;

adjustTimeStep  off;

writeControl    runTime;

writeInterval   10000;

purgeWrite      0;

writeFormat     ascii;

// writePrecision    6;

writeCompression on;

timeFormat      general;

timePrecision   6;

runTimeModifiable true;

functions
{
  # includeFunc probes
}

// ************************************************************************* //
