/*--------------------------------*- C++ -*----------------------------------*\
  =========                 |
  \\      /  F ield         | OpenFOAM: The Open Source CFD Toolbox
   \\    /   O peration     | Website:  https://openfoam.org
    \\  /    A nd           | Version:  7
     \\/     M anipulation  |
\*---------------------------------------------------------------------------*/
FoamFile
{
    version     2.0;
    format      ascii;
    class       dictionary;
    object      blockMeshDict;
}
// * * * * * * * * * * * * * * * * * * * * * * * * * * * * * * * * * * * * * //

convertToMeters 0.001;

vertices
(
    (0 0 0)
    (6.283185307179586 0 0)
    (6.283185307179586 6.283185307179586 0)
    (0 6.283185307179586 0)
    (0 0 6.283185307179586)
    (6.283185307179586 0 6.283185307179586)
    (6.283185307179586 6.283185307179586 6.283185307179586)
    (0 6.283185307179586 6.283185307179586)
);


blocks
(
    hex (0 1 2 3 4 5 6 7) (64 64 64) simpleGrading (1 1 1)
);

edges
(
);

boundary
(
    front
    {
        type cyclic;
        neighbourPatch back;
        faces
        (
            (4 5 6 7)
        );
    }
    back
    {
        type cyclic;
        neighbourPatch front;
        faces
        (
            (0 3 2 1)
        );
    }
    left
    {
        type cyclic;
        neighbourPatch right;
        faces
        (
            (0 4 7 3)
        );
    }
    right
    {
        type cyclic;
        neighbourPatch left;
        faces
        (
            (2 6 5 1)
        );
    }
    top
    {
        type cyclic;
        neighbourPatch down;
        faces
        (
            (3 7 6 2)
        );
    }
    down
    {
        type cyclic;
        neighbourPatch top;
        faces
        (
            (1 5 4 0)
        );
    }
);

// mergePatchPairs
// (
// );

// ************************************************************************* //
