/*--------------------------------*- C++ -*----------------------------------*\
  =========                 |
  \\      /  F ield         | OpenFOAM: The Open Source CFD Toolbox
   \\    /   O peration     | Website:  https://openfoam.org
    \\  /    A nd           | Version:  7
     \\/     M anipulation  |
\*---------------------------------------------------------------------------*/
FoamFile
{
    version     2.0;
    format      ascii;
    class       dictionary;
    location    "system";
    object      fvSolution;
}
// * * * * * * * * * * * * * * * * * * * * * * * * * * * * * * * * * * * * * //

solvers
{
	U
	{
		//solver		smoothSolver;
		//smoother	GaussSeidel;
		//nSweeps		2;
		//tolerance	1e-17;
		//relTol		0;

		solver			PBiCGStab;
		preconditioner	DIC;
		tolerance		1e-11;
		relTol			0;
	}
	
	h
	{
		$U;
		tolerance	1e-11;
		relTol		0;
	}

	e
	{
		$U;
		tolerance	1e-11;
		relTol		0;
	}

	"rho.*"
	{
		solver		diagonal;
	}

	"(O2|N2|Yi)"
	{
		solver          PBiCGStab;
        preconditioner	DILU;
        tolerance       1e-11;
        relTol          0;
	}
	
}

CENTRAL
{
}

// ************************************************************************* //
