/*--------------------------------*- C++ -*----------------------------------*\
  =========                 |
  \\      /  F ield         | OpenFOAM: The Open Source CFD Toolbox
   \\    /   O peration     | Website:  https://openfoam.org
    \\  /    A nd           | Version:  7
     \\/     M anipulation  |
\*---------------------------------------------------------------------------*/
FoamFile
{
    version     2.0;
    format      ascii;
    class       dictionary;
    location    "system";
    object      controlDict;
}
// * * * * * * * * * * * * * * * * * * * * * * * * * * * * * * * * * * * * * //
libs ("libfieldFunctionObjects.so");

application     dfHighSpeedFoam;

startFrom       startTime;

startTime       0;

stopAt          endTime;

endTime         2.4e-4;

deltaT          1e-09;

writeControl    adjustableRunTime;

writeInterval   5e-6;

cycleWrite      0;

writeFormat     ascii;

writePrecision  8;

writeCompression off;

timeFormat      general;

timePrecision   6;

runTimeModifiable true;

adjustTimeStep  yes;

maxCo           0.02;

maxDeltaT       1;

functions
{
    minMax
    {
      type          fieldMinMax;
      libs          ("libfieldFunctionObjects.so");
      writeControl  timeStep; //writeTime;
      fields        (p);
    }
}


// ************************************************************************* //
