/*--------------------------------*- C++ -*----------------------------------*\
  =========                 |
  \\      /  F ield         | OpenFOAM: The Open Source CFD Toolbox
   \\    /   O peration     | Website:  https://openfoam.org
    \\  /    A nd           | Version:  7
     \\/     M anipulation  |
\*---------------------------------------------------------------------------*/
FoamFile
{
    version     2.0;
    format      ascii;
    class       dictionary;
    location    "system";
    object      setFieldsDict;
}
// * * * * * * * * * * * * * * * * * * * * * * * * * * * * * * * * * * * * * //

defaultFieldValues
(
    volVectorFieldValue U (0 0 0)
    volScalarFieldValue T 300
    volScalarFieldValue p 101325 //1atm
);

regions
(
    boxToCell
    {
        box (0 0 0) (0.002 0.01 0.1);
        fieldValues
        (
            volScalarFieldValue T 2000
            volScalarFieldValue p 9119250 //90atm
        );
    }
);


// ************************************************************************* //
